@<TRIPOS>MOLECULE
****
60 90 1 0 0
SMALL
NO_CHARGES


@<TRIPOS>ATOM
      1 C          -2.0762   -2.7144   -0.6910 C.2       1     ****    0.0000
      2 C          -2.0728   -2.7103    0.7166 C.2       1     ****    0.0000
      3 C          -0.9041   -3.0540    1.4177 C.2       1     ****    0.0000
      4 C           0.2628   -3.4022    0.7118 C.2       1     ****    0.0000
      5 C           0.2594   -3.4065   -0.6939 C.2       1     ****    0.0000
      6 C          -0.9110   -3.0623   -1.3959 C.2       1     ****    0.0000
      7 C          -2.8603   -1.6274    1.1505 C.2       1     ****    0.0000
      8 C          -0.5213   -2.3157    2.5533 C.2       1     ****    0.0000
      9 C           1.3665   -2.8790    1.4113 C.2       1     ****    0.0000
     10 C           1.3597   -2.8874   -1.4019 C.2       1     ****    0.0000
     11 C          -0.5337   -2.3306   -2.5376 C.2       1     ****    0.0000
     12 C          -2.8660   -1.6340   -1.1271 C.2       1     ****    0.0000
     13 C           2.4617   -2.3649   -0.7032 C.2       1     ****    0.0000
     14 C           2.4650   -2.3607    0.7043 C.2       1     ****    0.0000
     15 C           3.0753   -1.1770   -1.1432 C.2       1     ****    0.0000
     16 C           3.0806   -1.1703    1.1344 C.2       1     ****    0.0000
     17 C          -2.4781   -0.8901    2.2845 C.2       1     ****    0.0000
     18 C           0.8820   -2.2075    2.5495 C.2       1     ****    0.0000
     19 C           3.4578   -0.4388   -0.0074 C.2       1     ****    0.0000
     20 C           1.4969   -1.0188    2.9792 C.2       1     ****    0.0000
     21 C          -1.3078   -1.2344    2.9867 C.2       1     ****    0.0000
     22 C           0.8697   -2.2224   -2.5415 C.2       1     ****    0.0000
     23 C          -1.3224   -1.2516   -2.9731 C.2       1     ****    0.0000
     24 C          -2.5856    0.5134    2.2809 C.2       1     ****    0.0000
     25 C          -2.4893   -0.9033   -2.2672 C.2       1     ****    0.0000
     26 C          -3.3506   -0.9623    0.0109 C.2       1     ****    0.0000
     27 C          -0.7088   -0.0637   -3.4129 C.2       1     ****    0.0000
     28 C          -2.5967    0.5002   -2.2708 C.2       1     ****    0.0000
     29 C          -3.4578    0.4391    0.0073 C.2       1     ****    0.0000
     30 C           2.5970   -0.4998    2.2710 C.2       1     ****    0.0000
     31 C           1.4825   -1.0361   -2.9808 C.2       1     ****    0.0000
     32 C          -0.6921   -0.0439    3.4169 C.2       1     ****    0.0000
     33 C          -1.4964    1.0191   -2.9788 C.2       1     ****    0.0000
     34 C          -3.0807    1.1708   -1.1344 C.2       1     ****    0.0000
     35 C          -3.0752    1.1774    1.1429 C.2       1     ****    0.0000
     36 C          -2.4616    2.3653    0.7031 C.2       1     ****    0.0000
     37 C          -1.4820    1.0364    2.9806 C.2       1     ****    0.0000
     38 C           0.7093    0.0640    3.4133 C.2       1     ****    0.0000
     39 C           1.3229    1.2521    2.9735 C.2       1     ****    0.0000
     40 C          -2.4651    2.3613   -0.7044 C.2       1     ****    0.0000
     41 C          -1.3664    2.8795   -1.4114 C.2       1     ****    0.0000
     42 C          -0.2626    3.4024   -0.7119 C.2       1     ****    0.0000
     43 C          -0.8817    2.2079   -2.5495 C.2       1     ****    0.0000
     44 C           2.5862   -0.5130   -2.2813 C.2       1     ****    0.0000
     45 C           0.5341    2.3308    2.5377 C.2       1     ****    0.0000
     46 C           0.6927    0.0442   -3.4169 C.2       1     ****    0.0000
     47 C           1.3083    1.2348   -2.9870 C.2       1     ****    0.0000
     48 C          -0.8693    2.2227    2.5414 C.2       1     ****    0.0000
     49 C           2.4896    0.9036    2.2674 C.2       1     ****    0.0000
     50 C           2.8661    1.6342    1.1271 C.2       1     ****    0.0000
     51 C          -1.3595    2.8876    1.4017 C.2       1     ****    0.0000
     52 C          -0.2592    3.4065    0.6937 C.2       1     ****    0.0000
     53 C           0.5217    2.3159   -2.5535 C.2       1     ****    0.0000
     54 C           0.9042    3.0542   -1.4178 C.2       1     ****    0.0000
     55 C           0.9111    3.0623    1.3958 C.2       1     ****    0.0000
     56 C           2.4787    0.8904   -2.2850 C.2       1     ****    0.0000
     57 C           3.3507    0.9627   -0.0111 C.2       1     ****    0.0000
     58 C           2.0763    2.7145    0.6909 C.2       1     ****    0.0000
     59 C           2.8606    1.6276   -1.1508 C.2       1     ****    0.0000
     60 C           2.0730    2.7104   -0.7167 C.2       1     ****    0.0000
@<TRIPOS>BOND
     1     1     2    am
     2     1     6    am
     3     1    12    am
     4     2     3    am
     5     2     7    am
     6     3     4    am
     7     3     8    am
     8     4     5    am
     9     4     9    am
    10     5     6    am
    11     5    10    am
    12     6    11    am
    13     7    17    am
    14     7    26    am
    15     8    18    am
    16     8    21    am
    17     9    14    am
    18     9    18    am
    19    10    13    am
    20    10    22    am
    21    11    22    am
    22    11    23    am
    23    12    25    am
    24    12    26    am
    25    13    14    am
    26    13    15    am
    27    14    16    am
    28    15    19    am
    29    15    44    am
    30    16    19    am
    31    16    30    am
    32    17    21    am
    33    17    24    am
    34    18    20    am
    35    19    57    am
    36    20    30    am
    37    20    38    am
    38    21    32    am
    39    22    31    am
    40    23    25    am
    41    23    27    am
    42    24    35    am
    43    24    37    am
    44    25    28    am
    45    26    29    am
    46    27    33    am
    47    27    46    am
    48    28    33    am
    49    28    34    am
    50    29    34    am
    51    29    35    am
    52    30    49    am
    53    31    44    am
    54    31    46    am
    55    32    37    am
    56    32    38    am
    57    33    43    am
    58    34    40    am
    59    35    36    am
    60    36    40    am
    61    36    51    am
    62    37    48    am
    63    38    39    am
    64    39    45    am
    65    39    49    am
    66    40    41    am
    67    41    42    am
    68    41    43    am
    69    42    52    am
    70    42    54    am
    71    43    53    am
    72    44    56    am
    73    45    48    am
    74    45    55    am
    75    46    47    am
    76    47    53    am
    77    47    56    am
    78    48    51    am
    79    49    50    am
    80    50    57    am
    81    50    58    am
    82    51    52    am
    83    52    55    am
    84    53    54    am
    85    54    60    am
    86    55    58    am
    87    56    59    am
    88    57    59    am
    89    58    60    am
    90    59    60    am
